New line.LINE1 Bus1=1 Bus2=2 phases=3 linecode=4c_70 length=1.098 units=m
New line.LINE2 Bus1=2 Bus2=3 phases=3 linecode=4c_70 length=0.11511 units=m
New line.LINE3 Bus1=3 Bus2=4 phases=3 linecode=4c_70 length=0.10784 units=m
New line.LINE4 Bus1=4 Bus2=5 phases=3 linecode=4c_70 length=0.094021 units=m
New line.LINE5 Bus1=5 Bus2=6 phases=3 linecode=4c_70 length=0.14812 units=m
New line.LINE6 Bus1=6 Bus2=7 phases=3 linecode=4c_70 length=10.0863 units=m
New line.LINE7 Bus1=7 Bus2=8 phases=3 linecode=4c_70 length=0.45175 units=m
New line.LINE8 Bus1=8 Bus2=9 phases=3 linecode=4c_70 length=0.376 units=m
New line.LINE9 Bus1=9 Bus2=10 phases=3 linecode=4c_70 length=0.32997 units=m
New line.LINE10 Bus1=10 Bus2=11 phases=3 linecode=4c_70 length=0.24622 units=m
New line.LINE11 Bus1=11 Bus2=12 phases=3 linecode=4c_70 length=0.23114 units=m
New line.LINE12 Bus1=12 Bus2=13 phases=3 linecode=4c_70 length=0.14213 units=m
New line.LINE13 Bus1=13 Bus2=14 phases=3 linecode=4c_70 length=0.35384 units=m
New line.LINE14 Bus1=14 Bus2=15 phases=3 linecode=4c_70 length=2.8664 units=m
New line.LINE15 Bus1=15 Bus2=16 phases=3 linecode=2c_.007 length=0.09654 units=m
New line.LINE16 Bus1=15 Bus2=17 phases=3 linecode=4c_70 length=3.476 units=m
New line.LINE17 Bus1=16 Bus2=18 phases=3 linecode=2c_.007 length=0.044045 units=m
New line.LINE18 Bus1=17 Bus2=19 phases=3 linecode=4c_70 length=0.23917 units=m
New line.LINE19 Bus1=18 Bus2=20 phases=3 linecode=2c_.007 length=0.046174 units=m
New line.LINE20 Bus1=19 Bus2=21 phases=3 linecode=4c_70 length=0.26856 units=m
New line.LINE21 Bus1=20 Bus2=22 phases=3 linecode=2c_.007 length=0.041976 units=m
New line.LINE22 Bus1=21 Bus2=23 phases=3 linecode=4c_70 length=0.43727 units=m
New line.LINE23 Bus1=22 Bus2=24 phases=3 linecode=2c_.007 length=0.051245 units=m
New line.LINE24 Bus1=23 Bus2=25 phases=3 linecode=4c_70 length=0.7955 units=m
New line.LINE25 Bus1=24 Bus2=26 phases=3 linecode=2c_.007 length=0.055902 units=m
New line.LINE26 Bus1=25 Bus2=27 phases=3 linecode=2c_16 length=5.9049 units=m
New line.LINE27 Bus1=25 Bus2=28 phases=3 linecode=4c_70 length=9.9686 units=m
New line.LINE28 Bus1=26 Bus2=29 phases=3 linecode=2c_.007 length=0.054562 units=m
New line.LINE29 Bus1=27 Bus2=30 phases=3 linecode=2c_16 length=1.6265 units=m
New line.LINE30 Bus1=27 Bus2=31 phases=3 linecode=2c_16 length=1.5847 units=m
New line.LINE31 Bus1=28 Bus2=32 phases=3 linecode=4c_70 length=2.6538 units=m
New line.LINE32 Bus1=29 Bus2=33 phases=3 linecode=2c_.007 length=0.14629 units=m
New line.LINE33 Bus1=30 Bus2=34 phases=3 linecode=2c_16 length=3.7248 units=m
New line.LINE34 Bus1=31 Bus2=35 phases=3 linecode=2c_16 length=0.053666 units=m
New line.LINE35 Bus1=32 Bus2=36 phases=3 linecode=2c_16 length=5.7265 units=m
New line.LINE36 Bus1=32 Bus2=37 phases=3 linecode=4c_70 length=8.0244 units=m
New line.LINE37 Bus1=33 Bus2=38 phases=3 linecode=2c_.007 length=0.13648 units=m
New line.LINE38 Bus1=35 Bus2=39 phases=3 linecode=2c_16 length=0.077162 units=m
New line.LINE39 Bus1=36 Bus2=40 phases=3 linecode=2c_16 length=0.40004 units=m
New line.LINE40 Bus1=36 Bus2=41 phases=3 linecode=2c_16 length=1.8063 units=m
New line.LINE41 Bus1=37 Bus2=42 phases=3 linecode=4c_70 length=5.5684 units=m
New line.LINE42 Bus1=37 Bus2=43 phases=3 linecode=4c_185 length=0.21675 units=m
New line.LINE43 Bus1=38 Bus2=44 phases=3 linecode=2c_.007 length=0.033838 units=m
New line.LINE44 Bus1=39 Bus2=45 phases=3 linecode=2c_16 length=0.098955 units=m
New line.LINE45 Bus1=40 Bus2=46 phases=3 linecode=2c_16 length=0.18031 units=m
New line.LINE46 Bus1=41 Bus2=47 phases=3 linecode=2c_16 length=4.3463 units=m
New line.LINE47 Bus1=42 Bus2=48 phases=3 linecode=4c_70 length=4.2078 units=m
New line.LINE48 Bus1=43 Bus2=49 phases=3 linecode=4c_185 length=0.10436 units=m
New line.LINE49 Bus1=44 Bus2=50 phases=3 linecode=2c_.007 length=0.048104 units=m
New line.LINE50 Bus1=45 Bus2=51 phases=3 linecode=2c_16 length=0.241 units=m
New line.LINE51 Bus1=46 Bus2=52 phases=3 linecode=2c_16 length=0.19109 units=m
New line.LINE52 Bus1=48 Bus2=53 phases=3 linecode=4c_70 length=0.60668 units=m
New line.LINE53 Bus1=48 Bus2=54 phases=3 linecode=4c_70 length=0.63949 units=m
New line.LINE54 Bus1=49 Bus2=55 phases=3 linecode=4c_185 length=0.11625 units=m
New line.LINE55 Bus1=50 Bus2=56 phases=3 linecode=2c_.007 length=0.087664 units=m
New line.LINE56 Bus1=51 Bus2=57 phases=3 linecode=2c_16 length=0.20634 units=m
New line.LINE57 Bus1=52 Bus2=58 phases=3 linecode=2c_16 length=0.182 units=m
New line.LINE58 Bus1=53 Bus2=59 phases=3 linecode=4c_70 length=2.7481 units=m
New line.LINE59 Bus1=54 Bus2=60 phases=3 linecode=4c_70 length=0.065368 units=m
New line.LINE60 Bus1=55 Bus2=61 phases=3 linecode=4c_185 length=0.10028 units=m
New line.LINE61 Bus1=56 Bus2=62 phases=3 linecode=2c_.007 length=0.078 units=m
New line.LINE62 Bus1=57 Bus2=63 phases=3 linecode=2c_16 length=0.98912 units=m
New line.LINE63 Bus1=58 Bus2=64 phases=3 linecode=2c_16 length=0.109 units=m
New line.LINE64 Bus1=59 Bus2=65 phases=3 linecode=4c_70 length=0.55868 units=m
New line.LINE65 Bus1=59 Bus2=66 phases=3 linecode=2c_16 length=8.2583 units=m
New line.LINE66 Bus1=60 Bus2=67 phases=3 linecode=4c_70 length=0.074 units=m
New line.LINE67 Bus1=61 Bus2=68 phases=3 linecode=4c_185 length=0.096042 units=m
New line.LINE68 Bus1=62 Bus2=69 phases=3 linecode=2c_.007 length=0.083241 units=m
New line.LINE69 Bus1=63 Bus2=70 phases=3 linecode=2c_16 length=3.4962 units=m
New line.LINE70 Bus1=64 Bus2=71 phases=3 linecode=2c_16 length=0.21385 units=m
New line.LINE71 Bus1=65 Bus2=72 phases=3 linecode=4c_70 length=6.6006 units=m
New line.LINE72 Bus1=66 Bus2=73 phases=3 linecode=2c_16 length=4.0366 units=m
New line.LINE73 Bus1=66 Bus2=74 phases=3 linecode=2c_16 length=4.0366 units=m
New line.LINE74 Bus1=67 Bus2=75 phases=3 linecode=4c_70 length=0.17951 units=m
New line.LINE75 Bus1=68 Bus2=76 phases=3 linecode=4c_185 length=0.23551 units=m
New line.LINE76 Bus1=69 Bus2=77 phases=3 linecode=2c_.007 length=0.38907 units=m
New line.LINE77 Bus1=71 Bus2=78 phases=3 linecode=2c_16 length=1.0838 units=m
New line.LINE78 Bus1=72 Bus2=79 phases=3 linecode=4c_70 length=2.3008 units=m
New line.LINE79 Bus1=75 Bus2=80 phases=3 linecode=4c_70 length=0.10362 units=m
New line.LINE80 Bus1=76 Bus2=81 phases=3 linecode=4c_185 length=0.7469 units=m
New line.LINE81 Bus1=77 Bus2=82 phases=3 linecode=2c_.007 length=0.51088 units=m
New line.LINE82 Bus1=78 Bus2=83 phases=3 linecode=2c_16 length=4.084 units=m
New line.LINE83 Bus1=79 Bus2=84 phases=3 linecode=4c_70 length=0.50211 units=m
New line.LINE84 Bus1=80 Bus2=85 phases=3 linecode=4c_70 length=0.11122 units=m
New line.LINE85 Bus1=81 Bus2=86 phases=3 linecode=4c_185 length=1.4388 units=m
New line.LINE86 Bus1=82 Bus2=87 phases=3 linecode=2c_.007 length=0.31045 units=m
New line.LINE87 Bus1=84 Bus2=88 phases=3 linecode=4c_70 length=1.0182 units=m
New line.LINE88 Bus1=85 Bus2=89 phases=3 linecode=4c_70 length=0.1048 units=m
New line.LINE89 Bus1=86 Bus2=90 phases=3 linecode=4c_185 length=0.34251 units=m
New line.LINE90 Bus1=87 Bus2=91 phases=3 linecode=2c_.007 length=0.11206 units=m
New line.LINE91 Bus1=88 Bus2=92 phases=3 linecode=4c_70 length=0.96021 units=m
New line.LINE92 Bus1=90 Bus2=93 phases=3 linecode=4c_185 length=0.065307 units=m
New line.LINE93 Bus1=91 Bus2=94 phases=3 linecode=2c_.007 length=0.034785 units=m
New line.LINE94 Bus1=92 Bus2=95 phases=3 linecode=4c_70 length=0.55811 units=m
New line.LINE95 Bus1=93 Bus2=96 phases=3 linecode=4c_185 length=0.086052 units=m
New line.LINE96 Bus1=94 Bus2=97 phases=3 linecode=2c_.007 length=0.03677 units=m
New line.LINE97 Bus1=95 Bus2=98 phases=3 linecode=4c_70 length=0.36859 units=m
New line.LINE98 Bus1=96 Bus2=99 phases=3 linecode=4c_185 length=0.037216 units=m
New line.LINE99 Bus1=97 Bus2=100 phases=3 linecode=2c_.007 length=0.089588 units=m
New line.LINE100 Bus1=98 Bus2=101 phases=3 linecode=4c_70 length=0.50892 units=m
New line.LINE101 Bus1=99 Bus2=102 phases=3 linecode=4c_185 length=5.0819 units=m
New line.LINE102 Bus1=100 Bus2=103 phases=3 linecode=2c_.007 length=0.28583 units=m
New line.LINE103 Bus1=101 Bus2=104 phases=3 linecode=4c_.35 length=0.28838 units=m
New line.LINE104 Bus1=101 Bus2=105 phases=3 linecode=4c_70 length=0.33602 units=m
New line.LINE105 Bus1=102 Bus2=106 phases=3 linecode=4c_185 length=0.22108 units=m
New line.LINE106 Bus1=104 Bus2=107 phases=3 linecode=4c_.35 length=0.3489 units=m
New line.LINE107 Bus1=105 Bus2=108 phases=3 linecode=4c_70 length=0.19054 units=m
New line.LINE108 Bus1=106 Bus2=109 phases=3 linecode=4c_185 length=0.45085 units=m
New line.LINE109 Bus1=107 Bus2=110 phases=3 linecode=4c_.35 length=0.4044 units=m
New line.LINE110 Bus1=108 Bus2=111 phases=3 linecode=4c_70 length=7.5182 units=m
New line.LINE111 Bus1=109 Bus2=112 phases=3 linecode=4c_185 length=11.9766 units=m
New line.LINE112 Bus1=110 Bus2=113 phases=3 linecode=4c_.35 length=0.61659 units=m
New line.LINE113 Bus1=111 Bus2=114 phases=3 linecode=4c_70 length=0.75316 units=m
New line.LINE114 Bus1=112 Bus2=115 phases=3 linecode=4c_185 length=10.6613 units=m
New line.LINE115 Bus1=113 Bus2=116 phases=3 linecode=4c_.35 length=0.79271 units=m
New line.LINE116 Bus1=114 Bus2=117 phases=3 linecode=4c_.35 length=1.1056 units=m
New line.LINE117 Bus1=114 Bus2=118 phases=3 linecode=4c_.1 length=3.6556 units=m
New line.LINE118 Bus1=115 Bus2=119 phases=3 linecode=4c_185 length=0.99464 units=m
New line.LINE119 Bus1=116 Bus2=120 phases=3 linecode=4c_.35 length=0.56909 units=m
New line.LINE120 Bus1=117 Bus2=121 phases=3 linecode=2c_.007 length=0.19481 units=m
New line.LINE121 Bus1=117 Bus2=122 phases=3 linecode=4c_.35 length=0.53831 units=m
New line.LINE122 Bus1=118 Bus2=123 phases=3 linecode=4c_.1 length=6.5924 units=m
New line.LINE123 Bus1=119 Bus2=124 phases=3 linecode=4c_185 length=0.7248 units=m
New line.LINE124 Bus1=120 Bus2=125 phases=3 linecode=4c_.35 length=0.80412 units=m
New line.LINE125 Bus1=121 Bus2=126 phases=3 linecode=2c_.007 length=0.16869 units=m
New line.LINE126 Bus1=122 Bus2=127 phases=3 linecode=4c_.35 length=2.5288 units=m
New line.LINE127 Bus1=123 Bus2=128 phases=3 linecode=4c_.1 length=2.9646 units=m
New line.LINE128 Bus1=124 Bus2=129 phases=3 linecode=4c_185 length=0.62512 units=m
New line.LINE129 Bus1=125 Bus2=130 phases=3 linecode=4c_.35 length=0.87 units=m
New line.LINE130 Bus1=126 Bus2=131 phases=3 linecode=2c_.007 length=0.11915 units=m
New line.LINE131 Bus1=127 Bus2=132 phases=3 linecode=2c_16 length=3.8212 units=m
New line.LINE132 Bus1=127 Bus2=133 phases=3 linecode=4c_.35 length=7.1782 units=m
New line.LINE133 Bus1=128 Bus2=134 phases=3 linecode=4c_.1 length=0.88205 units=m
New line.LINE134 Bus1=129 Bus2=135 phases=3 linecode=4c_185 length=1.9203 units=m
New line.LINE135 Bus1=130 Bus2=136 phases=3 linecode=4c_.35 length=0.82048 units=m
New line.LINE136 Bus1=131 Bus2=137 phases=3 linecode=2c_.007 length=0.18436 units=m
New line.LINE137 Bus1=132 Bus2=138 phases=3 linecode=2c_16 length=0.32908 units=m
New line.LINE138 Bus1=133 Bus2=139 phases=3 linecode=4c_.35 length=5.3402 units=m
New line.LINE139 Bus1=134 Bus2=140 phases=3 linecode=4c_.1 length=0.99566 units=m
New line.LINE140 Bus1=135 Bus2=141 phases=3 linecode=4c_185 length=1.4127 units=m
New line.LINE141 Bus1=136 Bus2=142 phases=3 linecode=4c_.35 length=1.349 units=m
New line.LINE142 Bus1=137 Bus2=143 phases=3 linecode=2c_.007 length=0.21781 units=m
New line.LINE143 Bus1=138 Bus2=144 phases=3 linecode=2c_16 length=0.32289 units=m
New line.LINE144 Bus1=139 Bus2=145 phases=3 linecode=4c_.35 length=3.5762 units=m
New line.LINE145 Bus1=140 Bus2=146 phases=3 linecode=4c_.1 length=0.9364 units=m
New line.LINE146 Bus1=141 Bus2=147 phases=3 linecode=4c_185 length=0.24053 units=m
New line.LINE147 Bus1=142 Bus2=148 phases=3 linecode=4c_.35 length=6.4142 units=m
New line.LINE148 Bus1=143 Bus2=149 phases=3 linecode=2c_.007 length=0.19401 units=m
New line.LINE149 Bus1=144 Bus2=150 phases=3 linecode=2c_16 length=0.26072 units=m
New line.LINE150 Bus1=145 Bus2=151 phases=3 linecode=4c_.35 length=3.5713 units=m
New line.LINE151 Bus1=145 Bus2=152 phases=3 linecode=2c_16 length=5.1314 units=m
New line.LINE152 Bus1=146 Bus2=153 phases=3 linecode=4c_.1 length=1.0926 units=m
New line.LINE153 Bus1=147 Bus2=154 phases=3 linecode=4c_185 length=0.083096 units=m
New line.LINE154 Bus1=148 Bus2=155 phases=3 linecode=4c_.35 length=1.3973 units=m
New line.LINE155 Bus1=149 Bus2=156 phases=3 linecode=2c_.007 length=0.2191 units=m
New line.LINE156 Bus1=150 Bus2=157 phases=3 linecode=2c_16 length=0.39132 units=m
New line.LINE157 Bus1=151 Bus2=158 phases=3 linecode=4c_.35 length=9.4713 units=m
New line.LINE158 Bus1=152 Bus2=159 phases=3 linecode=2c_16 length=0.31233 units=m
New line.LINE159 Bus1=153 Bus2=160 phases=3 linecode=4c_.1 length=0.31439 units=m
New line.LINE160 Bus1=154 Bus2=161 phases=3 linecode=4c_185 length=0.12256 units=m
New line.LINE161 Bus1=155 Bus2=162 phases=3 linecode=2c_16 length=11.7422 units=m
New line.LINE162 Bus1=155 Bus2=163 phases=3 linecode=4c_.35 length=5.2844 units=m
New line.LINE163 Bus1=156 Bus2=164 phases=3 linecode=2c_.007 length=0.20342 units=m
New line.LINE164 Bus1=157 Bus2=165 phases=3 linecode=2c_16 length=0.47178 units=m
New line.LINE165 Bus1=158 Bus2=166 phases=3 linecode=4c_.35 length=3.2899 units=m
New line.LINE166 Bus1=159 Bus2=167 phases=3 linecode=2c_16 length=0.28533 units=m
New line.LINE167 Bus1=160 Bus2=168 phases=3 linecode=4c_.1 length=1.7861 units=m
New line.LINE168 Bus1=161 Bus2=169 phases=3 linecode=4c_185 length=0.24958 units=m
New line.LINE169 Bus1=162 Bus2=170 phases=3 linecode=2c_16 length=2.2183 units=m
New line.LINE170 Bus1=163 Bus2=171 phases=3 linecode=4c_.35 length=7.0156 units=m
New line.LINE171 Bus1=164 Bus2=172 phases=3 linecode=2c_.007 length=0.1727 units=m
New line.LINE172 Bus1=165 Bus2=173 phases=3 linecode=2c_16 length=0.35642 units=m
New line.LINE173 Bus1=166 Bus2=174 phases=3 linecode=4c_.35 length=3.9183 units=m
New line.LINE174 Bus1=166 Bus2=175 phases=3 linecode=2c_16 length=4.2045 units=m
New line.LINE175 Bus1=167 Bus2=176 phases=3 linecode=2c_16 length=0.11853 units=m
New line.LINE176 Bus1=168 Bus2=177 phases=3 linecode=4c_.1 length=1.0088 units=m
New line.LINE177 Bus1=170 Bus2=178 phases=3 linecode=2c_16 length=4.5768 units=m
New line.LINE178 Bus1=171 Bus2=179 phases=3 linecode=4c_.35 length=1.1818 units=m
New line.LINE179 Bus1=171 Bus2=180 phases=3 linecode=2c_16 length=2.4224 units=m
New line.LINE180 Bus1=172 Bus2=181 phases=3 linecode=2c_.007 length=0.17961 units=m
New line.LINE181 Bus1=173 Bus2=182 phases=3 linecode=2c_16 length=0.41244 units=m
New line.LINE182 Bus1=174 Bus2=183 phases=3 linecode=4c_.35 length=0.58763 units=m
New line.LINE183 Bus1=175 Bus2=184 phases=3 linecode=2c_16 length=0.45409 units=m
New line.LINE184 Bus1=176 Bus2=185 phases=3 linecode=2c_16 length=0.25549 units=m
New line.LINE185 Bus1=177 Bus2=186 phases=3 linecode=4c_.1 length=0.74886 units=m
New line.LINE186 Bus1=179 Bus2=187 phases=3 linecode=4c_.35 length=4.6507 units=m
New line.LINE187 Bus1=180 Bus2=188 phases=3 linecode=2c_16 length=10.0258 units=m
New line.LINE188 Bus1=181 Bus2=189 phases=3 linecode=2c_.007 length=0.15412 units=m
New line.LINE189 Bus1=182 Bus2=190 phases=3 linecode=2c_16 length=0.3878 units=m
New line.LINE190 Bus1=183 Bus2=191 phases=3 linecode=4c_.35 length=2.3151 units=m
New line.LINE191 Bus1=183 Bus2=192 phases=3 linecode=4c_.35 length=0.27791 units=m
New line.LINE192 Bus1=184 Bus2=193 phases=3 linecode=2c_16 length=0.43923 units=m
New line.LINE193 Bus1=185 Bus2=194 phases=3 linecode=2c_16 length=0.65073 units=m
New line.LINE194 Bus1=186 Bus2=195 phases=3 linecode=4c_.1 length=0.67326 units=m
New line.LINE195 Bus1=187 Bus2=196 phases=3 linecode=4c_.35 length=8.3036 units=m
New line.LINE196 Bus1=188 Bus2=197 phases=3 linecode=2c_16 length=1.9595 units=m
New line.LINE197 Bus1=188 Bus2=198 phases=3 linecode=2c_16 length=1.1325 units=m
New line.LINE198 Bus1=189 Bus2=199 phases=3 linecode=2c_.007 length=0.19148 units=m
New line.LINE199 Bus1=190 Bus2=200 phases=3 linecode=2c_16 length=0.41725 units=m
New line.LINE200 Bus1=191 Bus2=201 phases=3 linecode=4c_.35 length=0.9314 units=m
New line.LINE201 Bus1=192 Bus2=202 phases=3 linecode=4c_.35 length=0.16447 units=m
New line.LINE202 Bus1=193 Bus2=203 phases=3 linecode=2c_16 length=0.35134 units=m
New line.LINE203 Bus1=194 Bus2=204 phases=3 linecode=2c_16 length=0.38178 units=m
New line.LINE204 Bus1=195 Bus2=205 phases=3 linecode=4c_.1 length=0.83638 units=m
New line.LINE205 Bus1=196 Bus2=206 phases=3 linecode=2c_16 length=3.2475 units=m
New line.LINE206 Bus1=196 Bus2=207 phases=3 linecode=4c_.35 length=2.1371 units=m
New line.LINE207 Bus1=197 Bus2=208 phases=3 linecode=2c_16 length=4.9541 units=m
New line.LINE208 Bus1=198 Bus2=209 phases=3 linecode=2c_16 length=0.16008 units=m
New line.LINE209 Bus1=199 Bus2=210 phases=3 linecode=2c_.007 length=0.44838 units=m
New line.LINE210 Bus1=200 Bus2=211 phases=3 linecode=2c_16 length=0.63785 units=m
New line.LINE211 Bus1=202 Bus2=212 phases=3 linecode=4c_.35 length=0.15526 units=m
New line.LINE212 Bus1=203 Bus2=213 phases=3 linecode=2c_16 length=0.27987 units=m
New line.LINE213 Bus1=204 Bus2=214 phases=3 linecode=2c_16 length=0.2674 units=m
New line.LINE214 Bus1=205 Bus2=215 phases=3 linecode=4c_.1 length=1.5434 units=m
New line.LINE215 Bus1=206 Bus2=216 phases=3 linecode=2c_16 length=10.6295 units=m
New line.LINE216 Bus1=207 Bus2=217 phases=3 linecode=4c_.35 length=3.8571 units=m
New line.LINE217 Bus1=209 Bus2=218 phases=3 linecode=2c_16 length=0.1291 units=m
New line.LINE218 Bus1=210 Bus2=219 phases=3 linecode=2c_.007 length=0.67215 units=m
New line.LINE219 Bus1=211 Bus2=220 phases=3 linecode=2c_16 length=1.7419 units=m
New line.LINE220 Bus1=212 Bus2=221 phases=3 linecode=4c_.35 length=0.17006 units=m
New line.LINE221 Bus1=213 Bus2=222 phases=3 linecode=2c_16 length=0.59169 units=m
New line.LINE222 Bus1=214 Bus2=223 phases=3 linecode=2c_16 length=0.51437 units=m
New line.LINE223 Bus1=215 Bus2=224 phases=3 linecode=4c_.1 length=1.3456 units=m
New line.LINE224 Bus1=216 Bus2=225 phases=3 linecode=2c_16 length=4.5822 units=m
New line.LINE225 Bus1=217 Bus2=226 phases=3 linecode=4c_.35 length=1.3772 units=m
New line.LINE226 Bus1=218 Bus2=227 phases=3 linecode=2c_16 length=0.10317 units=m
New line.LINE227 Bus1=220 Bus2=228 phases=3 linecode=2c_16 length=0.14852 units=m
New line.LINE228 Bus1=221 Bus2=229 phases=3 linecode=4c_.35 length=0.23273 units=m
New line.LINE229 Bus1=222 Bus2=230 phases=3 linecode=2c_16 length=0.46597 units=m
New line.LINE230 Bus1=223 Bus2=231 phases=3 linecode=2c_16 length=0.25602 units=m
New line.LINE231 Bus1=224 Bus2=232 phases=3 linecode=4c_.1 length=0.91534 units=m
New line.LINE232 Bus1=226 Bus2=233 phases=3 linecode=2c_16 length=11.8949 units=m
New line.LINE233 Bus1=226 Bus2=234 phases=3 linecode=4c_.35 length=1.1273 units=m
New line.LINE234 Bus1=227 Bus2=235 phases=3 linecode=2c_16 length=0.15749 units=m
New line.LINE235 Bus1=228 Bus2=236 phases=3 linecode=2c_16 length=0.0686 units=m
New line.LINE236 Bus1=229 Bus2=237 phases=3 linecode=4c_.35 length=0.20742 units=m
New line.LINE237 Bus1=230 Bus2=238 phases=3 linecode=2c_16 length=0.32322 units=m
New line.LINE238 Bus1=231 Bus2=239 phases=3 linecode=2c_16 length=0.18179 units=m
New line.LINE239 Bus1=232 Bus2=240 phases=3 linecode=4c_.1 length=0.6013 units=m
New line.LINE240 Bus1=233 Bus2=241 phases=3 linecode=2c_16 length=1.7274 units=m
New line.LINE241 Bus1=235 Bus2=242 phases=3 linecode=2c_16 length=0.18461 units=m
New line.LINE242 Bus1=236 Bus2=243 phases=3 linecode=2c_16 length=0.073376 units=m
New line.LINE243 Bus1=237 Bus2=244 phases=3 linecode=4c_.35 length=0.16881 units=m
New line.LINE244 Bus1=238 Bus2=245 phases=3 linecode=2c_16 length=0.32245 units=m
New line.LINE245 Bus1=239 Bus2=246 phases=3 linecode=2c_16 length=2.0796 units=m
New line.LINE246 Bus1=240 Bus2=247 phases=3 linecode=4c_.1 length=1.2941 units=m
New line.LINE247 Bus1=241 Bus2=248 phases=3 linecode=2c_16 length=5.3022 units=m
New line.LINE248 Bus1=241 Bus2=249 phases=3 linecode=2c_16 length=5.3022 units=m
New line.LINE249 Bus1=242 Bus2=250 phases=3 linecode=2c_16 length=0.28355 units=m
New line.LINE250 Bus1=243 Bus2=251 phases=3 linecode=2c_16 length=0.070114 units=m
New line.LINE251 Bus1=244 Bus2=252 phases=3 linecode=4c_.35 length=0.13297 units=m
New line.LINE252 Bus1=245 Bus2=253 phases=3 linecode=2c_16 length=0.47173 units=m
New line.LINE253 Bus1=246 Bus2=254 phases=3 linecode=2c_16 length=0.61324 units=m
New line.LINE254 Bus1=247 Bus2=255 phases=3 linecode=2c_16 length=4.5618 units=m
New line.LINE255 Bus1=247 Bus2=256 phases=3 linecode=4c_.1 length=0.85678 units=m
New line.LINE256 Bus1=250 Bus2=257 phases=3 linecode=2c_16 length=1.0376 units=m
New line.LINE257 Bus1=251 Bus2=258 phases=3 linecode=2c_16 length=0.07811 units=m
New line.LINE258 Bus1=252 Bus2=259 phases=3 linecode=4c_.35 length=0.17323 units=m
New line.LINE259 Bus1=253 Bus2=260 phases=3 linecode=2c_16 length=1.7742 units=m
New line.LINE260 Bus1=254 Bus2=261 phases=3 linecode=2c_16 length=0.1372 units=m
New line.LINE261 Bus1=255 Bus2=262 phases=3 linecode=2c_16 length=0.6306 units=m
New line.LINE262 Bus1=256 Bus2=263 phases=3 linecode=4c_.1 length=3.2128 units=m
New line.LINE263 Bus1=257 Bus2=264 phases=3 linecode=2c_16 length=5.05 units=m
New line.LINE264 Bus1=258 Bus2=265 phases=3 linecode=2c_16 length=0.16123 units=m
New line.LINE265 Bus1=259 Bus2=266 phases=3 linecode=4c_.35 length=0.19436 units=m
New line.LINE266 Bus1=260 Bus2=267 phases=3 linecode=2c_16 length=0.4141 units=m
New line.LINE267 Bus1=261 Bus2=268 phases=3 linecode=2c_16 length=3.4578 units=m
New line.LINE268 Bus1=261 Bus2=269 phases=3 linecode=2c_16 length=0.11871 units=m
New line.LINE269 Bus1=262 Bus2=270 phases=3 linecode=2c_16 length=0.28991 units=m
New line.LINE270 Bus1=263 Bus2=271 phases=3 linecode=2c_16 length=4.2547 units=m
New line.LINE271 Bus1=263 Bus2=272 phases=3 linecode=4c_.1 length=1.0792 units=m
New line.LINE272 Bus1=265 Bus2=273 phases=3 linecode=2c_16 length=0.16792 units=m
New line.LINE273 Bus1=266 Bus2=274 phases=3 linecode=4c_.35 length=0.17888 units=m
New line.LINE274 Bus1=267 Bus2=275 phases=3 linecode=2c_16 length=0.18971 units=m
New line.LINE275 Bus1=268 Bus2=276 phases=3 linecode=2c_16 length=3.4268 units=m
New line.LINE276 Bus1=269 Bus2=277 phases=3 linecode=2c_16 length=0.13918 units=m
New line.LINE277 Bus1=270 Bus2=278 phases=3 linecode=2c_16 length=0.34433 units=m
New line.LINE278 Bus1=271 Bus2=279 phases=3 linecode=2c_16 length=0.30927 units=m
New line.LINE279 Bus1=272 Bus2=280 phases=3 linecode=4c_.1 length=3.9121 units=m
New line.LINE280 Bus1=273 Bus2=281 phases=3 linecode=2c_16 length=0.63854 units=m
New line.LINE281 Bus1=274 Bus2=282 phases=3 linecode=4c_.35 length=0.60542 units=m
New line.LINE282 Bus1=275 Bus2=283 phases=3 linecode=2c_16 length=0.12472 units=m
New line.LINE283 Bus1=277 Bus2=284 phases=3 linecode=2c_16 length=0.12578 units=m
New line.LINE284 Bus1=278 Bus2=285 phases=3 linecode=2c_16 length=0.53126 units=m
New line.LINE285 Bus1=279 Bus2=286 phases=3 linecode=2c_16 length=0.25491 units=m
New line.LINE286 Bus1=280 Bus2=287 phases=3 linecode=4c_.06 length=1.7542 units=m
New line.LINE287 Bus1=280 Bus2=288 phases=3 linecode=4c_.1 length=0.91306 units=m
New line.LINE288 Bus1=281 Bus2=289 phases=3 linecode=2c_16 length=3.3901 units=m
New line.LINE289 Bus1=282 Bus2=290 phases=3 linecode=4c_.35 length=0.81044 units=m
New line.LINE290 Bus1=283 Bus2=291 phases=3 linecode=2c_16 length=0.87618 units=m
New line.LINE291 Bus1=283 Bus2=292 phases=3 linecode=2c_16 length=0.10807 units=m
New line.LINE292 Bus1=284 Bus2=293 phases=3 linecode=2c_16 length=0.12739 units=m
New line.LINE293 Bus1=285 Bus2=294 phases=3 linecode=2c_16 length=0.47339 units=m
New line.LINE294 Bus1=286 Bus2=295 phases=3 linecode=2c_16 length=0.36208 units=m
New line.LINE295 Bus1=287 Bus2=296 phases=3 linecode=4c_.06 length=0.80742 units=m
New line.LINE296 Bus1=288 Bus2=297 phases=3 linecode=4c_.1 length=3.8266 units=m
New line.LINE297 Bus1=291 Bus2=298 phases=3 linecode=2c_16 length=0.40248 units=m
New line.LINE298 Bus1=292 Bus2=299 phases=3 linecode=2c_16 length=0.076485 units=m
New line.LINE299 Bus1=293 Bus2=300 phases=3 linecode=2c_16 length=0.13697 units=m
New line.LINE300 Bus1=294 Bus2=301 phases=3 linecode=2c_16 length=0.36805 units=m
New line.LINE301 Bus1=295 Bus2=302 phases=3 linecode=2c_16 length=1.6263 units=m
New line.LINE302 Bus1=296 Bus2=303 phases=3 linecode=4c_.06 length=5.2746 units=m
New line.LINE303 Bus1=297 Bus2=304 phases=3 linecode=4c_.1 length=0.84468 units=m
New line.LINE304 Bus1=298 Bus2=305 phases=3 linecode=2c_16 length=0.68119 units=m
New line.LINE305 Bus1=299 Bus2=306 phases=3 linecode=2c_16 length=0.089006 units=m
New line.LINE306 Bus1=300 Bus2=307 phases=3 linecode=2c_16 length=0.79435 units=m
New line.LINE307 Bus1=301 Bus2=308 phases=3 linecode=2c_16 length=0.45813 units=m
New line.LINE308 Bus1=302 Bus2=309 phases=3 linecode=2c_16 length=0.31308 units=m
New line.LINE309 Bus1=303 Bus2=310 phases=3 linecode=4c_.06 length=0.39397 units=m
New line.LINE310 Bus1=304 Bus2=311 phases=3 linecode=4c_.1 length=0.28067 units=m
New line.LINE311 Bus1=305 Bus2=312 phases=3 linecode=2c_16 length=1.3075 units=m
New line.LINE312 Bus1=306 Bus2=313 phases=3 linecode=2c_16 length=0.17024 units=m
New line.LINE313 Bus1=307 Bus2=314 phases=3 linecode=2c_16 length=3.3598 units=m
New line.LINE314 Bus1=308 Bus2=315 phases=3 linecode=2c_16 length=0.47384 units=m
New line.LINE315 Bus1=309 Bus2=316 phases=3 linecode=2c_16 length=0.23181 units=m
New line.LINE316 Bus1=310 Bus2=317 phases=3 linecode=2c_16 length=0.64903 units=m
New line.LINE317 Bus1=310 Bus2=318 phases=3 linecode=4c_.06 length=7.2163 units=m
New line.LINE318 Bus1=311 Bus2=319 phases=3 linecode=4c_.1 length=0.14649 units=m
New line.LINE319 Bus1=312 Bus2=320 phases=3 linecode=2c_16 length=3.8495 units=m
New line.LINE320 Bus1=313 Bus2=321 phases=3 linecode=2c_16 length=0.6529 units=m
New line.LINE321 Bus1=315 Bus2=322 phases=3 linecode=2c_16 length=0.55892 units=m
New line.LINE322 Bus1=316 Bus2=323 phases=3 linecode=2c_16 length=0.26702 units=m
New line.LINE323 Bus1=317 Bus2=324 phases=3 linecode=2c_16 length=3.3427 units=m
New line.LINE324 Bus1=318 Bus2=325 phases=3 linecode=4c_.06 length=3.4631 units=m
New line.LINE325 Bus1=319 Bus2=326 phases=3 linecode=4c_.1 length=0.1254 units=m
New line.LINE326 Bus1=321 Bus2=327 phases=3 linecode=2c_16 length=2.2281 units=m
New line.LINE327 Bus1=322 Bus2=328 phases=3 linecode=2c_16 length=0.31851 units=m
New line.LINE328 Bus1=323 Bus2=329 phases=3 linecode=2c_16 length=0.26488 units=m
New line.LINE329 Bus1=324 Bus2=330 phases=3 linecode=2c_16 length=1.167 units=m
New line.LINE330 Bus1=325 Bus2=331 phases=3 linecode=2c_16 length=9.1332 units=m
New line.LINE331 Bus1=325 Bus2=332 phases=3 linecode=4c_.06 length=6.6729 units=m
New line.LINE332 Bus1=326 Bus2=333 phases=3 linecode=4c_.1 length=0.14262 units=m
New line.LINE333 Bus1=328 Bus2=334 phases=3 linecode=2c_16 length=1.4389 units=m
New line.LINE334 Bus1=329 Bus2=335 phases=3 linecode=2c_16 length=2.327 units=m
New line.LINE335 Bus1=330 Bus2=336 phases=3 linecode=2c_16 length=2.5399 units=m
New line.LINE336 Bus1=331 Bus2=337 phases=3 linecode=2c_16 length=3.6172 units=m
New line.LINE337 Bus1=332 Bus2=338 phases=3 linecode=2c_16 length=6.8067 units=m
New line.LINE338 Bus1=332 Bus2=339 phases=3 linecode=4c_.06 length=1.2129 units=m
New line.LINE339 Bus1=333 Bus2=340 phases=3 linecode=4c_.1 length=0.11236 units=m
New line.LINE340 Bus1=334 Bus2=341 phases=3 linecode=2c_16 length=0.55999 units=m
New line.LINE341 Bus1=335 Bus2=342 phases=3 linecode=2c_16 length=4.7567 units=m
New line.LINE342 Bus1=336 Bus2=343 phases=3 linecode=2c_16 length=2.082 units=m
New line.LINE343 Bus1=336 Bus2=344 phases=3 linecode=2c_16 length=0.9796 units=m
New line.LINE344 Bus1=338 Bus2=345 phases=3 linecode=2c_16 length=3.4221 units=m
New line.LINE345 Bus1=339 Bus2=346 phases=3 linecode=4c_.06 length=1.0391 units=m
New line.LINE346 Bus1=340 Bus2=347 phases=3 linecode=4c_.1 length=0.094202 units=m
New line.LINE347 Bus1=341 Bus2=348 phases=3 linecode=2c_16 length=0.19454 units=m
New line.LINE348 Bus1=343 Bus2=349 phases=3 linecode=2c_16 length=3.1153 units=m
New line.LINE349 Bus1=344 Bus2=350 phases=3 linecode=2c_16 length=0.1364 units=m
New line.LINE350 Bus1=345 Bus2=351 phases=3 linecode=2c_16 length=0.31846 units=m
New line.LINE351 Bus1=346 Bus2=352 phases=3 linecode=4c_.06 length=0.73091 units=m
New line.LINE352 Bus1=347 Bus2=353 phases=3 linecode=4c_.1 length=0.085 units=m
New line.LINE353 Bus1=348 Bus2=354 phases=3 linecode=2c_16 length=0.14656 units=m
New line.LINE354 Bus1=350 Bus2=355 phases=3 linecode=2c_16 length=0.14814 units=m
New line.LINE355 Bus1=351 Bus2=356 phases=3 linecode=2c_16 length=0.13152 units=m
New line.LINE356 Bus1=352 Bus2=357 phases=3 linecode=4c_.06 length=0.92352 units=m
New line.LINE357 Bus1=353 Bus2=358 phases=3 linecode=4c_.1 length=0.070349 units=m
New line.LINE358 Bus1=354 Bus2=359 phases=3 linecode=2c_16 length=0.10723 units=m
New line.LINE359 Bus1=355 Bus2=360 phases=3 linecode=2c_16 length=0.12976 units=m
New line.LINE360 Bus1=356 Bus2=361 phases=3 linecode=2c_16 length=0.092801 units=m
New line.LINE361 Bus1=357 Bus2=362 phases=3 linecode=4c_.06 length=0.57867 units=m
New line.LINE362 Bus1=358 Bus2=363 phases=3 linecode=4c_.1 length=0.081609 units=m
New line.LINE363 Bus1=359 Bus2=364 phases=3 linecode=2c_16 length=0.054452 units=m
New line.LINE364 Bus1=360 Bus2=365 phases=3 linecode=2c_16 length=0.13787 units=m
New line.LINE365 Bus1=361 Bus2=366 phases=3 linecode=2c_16 length=0.094921 units=m