New loadshape.Shape_1 npts=1440 minterval=1 csvfile=.\LoadProfile\Load_profile_1.txt useactual=false
New loadshape.Shape_2 npts=1440 minterval=1 csvfile=.\LoadProfile\Load_profile_2.txt useactual=false
New loadshape.Shape_3 npts=1440 minterval=1 csvfile=.\LoadProfile\Load_profile_3.txt useactual=false
New loadshape.Shape_4 npts=1440 minterval=1 csvfile=.\LoadProfile\Load_profile_4.txt useactual=false
New loadshape.Shape_5 npts=1440 minterval=1 csvfile=.\LoadProfile\Load_profile_5.txt useactual=false
New loadshape.Shape_6 npts=1440 minterval=1 csvfile=.\LoadProfile\Load_profile_6.txt useactual=false
New loadshape.Shape_7 npts=1440 minterval=1 csvfile=.\LoadProfile\Load_profile_7.txt useactual=false
New loadshape.Shape_8 npts=1440 minterval=1 csvfile=.\LoadProfile\Load_profile_8.txt useactual=false
New loadshape.Shape_9 npts=1440 minterval=1 csvfile=.\LoadProfile\Load_profile_9.txt useactual=false
New loadshape.Shape_10 npts=1440 minterval=1 csvfile=.\LoadProfile\Load_profile_10.txt useactual=false
New loadshape.Shape_11 npts=1440 minterval=1 csvfile=.\LoadProfile\Load_profile_11.txt useactual=false
New loadshape.Shape_12 npts=1440 minterval=1 csvfile=.\LoadProfile\Load_profile_12.txt useactual=false
New loadshape.Shape_13 npts=1440 minterval=1 csvfile=.\LoadProfile\Load_profile_13.txt useactual=false
New loadshape.Shape_14 npts=1440 minterval=1 csvfile=.\LoadProfile\Load_profile_14.txt useactual=false
New loadshape.Shape_15 npts=1440 minterval=1 csvfile=.\LoadProfile\Load_profile_15.txt useactual=false
New loadshape.Shape_16 npts=1440 minterval=1 csvfile=.\LoadProfile\Load_profile_16.txt useactual=false
New loadshape.Shape_17 npts=1440 minterval=1 csvfile=.\LoadProfile\Load_profile_17.txt useactual=false
New loadshape.Shape_18 npts=1440 minterval=1 csvfile=.\LoadProfile\Load_profile_18.txt useactual=false
New loadshape.Shape_19 npts=1440 minterval=1 csvfile=.\LoadProfile\Load_profile_19.txt useactual=false
New loadshape.Shape_20 npts=1440 minterval=1 csvfile=.\LoadProfile\Load_profile_20.txt useactual=false
New loadshape.Shape_21 npts=1440 minterval=1 csvfile=.\LoadProfile\Load_profile_21.txt useactual=false
New loadshape.Shape_22 npts=1440 minterval=1 csvfile=.\LoadProfile\Load_profile_22.txt useactual=false
New loadshape.Shape_23 npts=1440 minterval=1 csvfile=.\LoadProfile\Load_profile_23.txt useactual=false
New loadshape.Shape_24 npts=1440 minterval=1 csvfile=.\LoadProfile\Load_profile_24.txt useactual=false
New loadshape.Shape_25 npts=1440 minterval=1 csvfile=.\LoadProfile\Load_profile_25.txt useactual=false
New loadshape.Shape_26 npts=1440 minterval=1 csvfile=.\LoadProfile\Load_profile_26.txt useactual=false
New loadshape.Shape_27 npts=1440 minterval=1 csvfile=.\LoadProfile\Load_profile_27.txt useactual=false
New loadshape.Shape_28 npts=1440 minterval=1 csvfile=.\LoadProfile\Load_profile_28.txt useactual=false
New loadshape.Shape_29 npts=1440 minterval=1 csvfile=.\LoadProfile\Load_profile_29.txt useactual=false
New loadshape.Shape_30 npts=1440 minterval=1 csvfile=.\LoadProfile\Load_profile_30.txt useactual=false
New loadshape.Shape_31 npts=1440 minterval=1 csvfile=.\LoadProfile\Load_profile_31.txt useactual=false
New loadshape.Shape_32 npts=1440 minterval=1 csvfile=.\LoadProfile\Load_profile_32.txt useactual=false
New loadshape.Shape_33 npts=1440 minterval=1 csvfile=.\LoadProfile\Load_profile_33.txt useactual=false
New loadshape.Shape_34 npts=1440 minterval=1 csvfile=.\LoadProfile\Load_profile_34.txt useactual=false
New loadshape.Shape_35 npts=1440 minterval=1 csvfile=.\LoadProfile\Load_profile_35.txt useactual=false
New loadshape.Shape_36 npts=1440 minterval=1 csvfile=.\LoadProfile\Load_profile_36.txt useactual=false
New loadshape.Shape_37 npts=1440 minterval=1 csvfile=.\LoadProfile\Load_profile_37.txt useactual=false
New loadshape.Shape_38 npts=1440 minterval=1 csvfile=.\LoadProfile\Load_profile_38.txt useactual=false
New loadshape.Shape_39 npts=1440 minterval=1 csvfile=.\LoadProfile\Load_profile_39.txt useactual=false
New loadshape.Shape_40 npts=1440 minterval=1 csvfile=.\LoadProfile\Load_profile_40.txt useactual=false
New loadshape.Shape_41 npts=1440 minterval=1 csvfile=.\LoadProfile\Load_profile_41.txt useactual=false
New loadshape.Shape_42 npts=1440 minterval=1 csvfile=.\LoadProfile\Load_profile_42.txt useactual=false
New loadshape.Shape_43 npts=1440 minterval=1 csvfile=.\LoadProfile\Load_profile_43.txt useactual=false
New loadshape.Shape_44 npts=1440 minterval=1 csvfile=.\LoadProfile\Load_profile_44.txt useactual=false
New loadshape.Shape_45 npts=1440 minterval=1 csvfile=.\LoadProfile\Load_profile_45.txt useactual=false
New loadshape.Shape_46 npts=1440 minterval=1 csvfile=.\LoadProfile\Load_profile_46.txt useactual=false
New loadshape.Shape_47 npts=1440 minterval=1 csvfile=.\LoadProfile\Load_profile_47.txt useactual=false
New loadshape.Shape_48 npts=1440 minterval=1 csvfile=.\LoadProfile\Load_profile_48.txt useactual=false
New loadshape.Shape_49 npts=1440 minterval=1 csvfile=.\LoadProfile\Load_profile_49.txt useactual=false
New loadshape.Shape_50 npts=1440 minterval=1 csvfile=.\LoadProfile\Load_profile_50.txt useactual=false
New loadshape.Shape_51 npts=1440 minterval=1 csvfile=.\LoadProfile\Load_profile_51.txt useactual=false
New loadshape.Shape_52 npts=1440 minterval=1 csvfile=.\LoadProfile\Load_profile_52.txt useactual=false
New loadshape.Shape_53 npts=1440 minterval=1 csvfile=.\LoadProfile\Load_profile_53.txt useactual=false
New loadshape.Shape_54 npts=1440 minterval=1 csvfile=.\LoadProfile\Load_profile_54.txt useactual=false
New loadshape.Shape_55 npts=1440 minterval=1 csvfile=.\LoadProfile\Load_profile_55.txt useactual=false
